
**** 01/08/22 22:32:13 ******* PSpice 17.4.0 (Nov 2018) ******* ID# 0 ********

 ** Profile: "SCHEMATIC1-halfwave"  [ c:\users\hp\documents\orcad\halfwaverectiier-pspicefiles\schematic1\halfwave.sim ] 


 ****     CIRCUIT DESCRIPTION


******************************************************************************




** Creating circuit file "halfwave.cir" 
** WARNING: THIS AUTOMATICALLY GENERATED FILE MAY BE OVERWRITTEN BY SUBSEQUENT SIMULATIONS

*Libraries: 
* Profile Libraries :
* Local Libraries :
* From [PSPICE NETLIST] section of C:\SPB_DATA\cdssetup\OrCAD_PSpice\17.4.0\PSpice.ini file:
.lib "nom.lib" 

*Analysis directives: 
.TRAN  0 0.003s 0 
.OPTIONS ADVCONV
.PROBE64 V(alias(*)) I(alias(*)) W(alias(*)) D(alias(*)) NOISE(alias(*)) 
.INC "..\SCHEMATIC1.net" 



**** INCLUDING SCHEMATIC1.net ****
* source HALFWAVERECTIIER
V_V1         N00467 0  AC {0}
+SIN {0} {10} {1000} 0 0 0
D_D1         N00467 N00474 D1N4148 
R_R1         0 N00474 10k

**** RESUMING halfwave.cir ****
.END

**** 01/08/22 22:32:13 ******* PSpice 17.4.0 (Nov 2018) ******* ID# 0 ********

 ** Profile: "SCHEMATIC1-halfwave"  [ c:\users\hp\documents\orcad\halfwaverectiier-pspicefiles\schematic1\halfwave.sim ] 


 ****     Diode MODEL PARAMETERS


******************************************************************************




               D1N4148         
          IS    2.682000E-09 
           N    1.836        
         ISR    1.565000E-09 
         IKF     .04417      
          BV  100            
         IBV  100.000000E-06 
          RS     .5664       
          TT   11.540000E-09 
         CJO    4.000000E-12 
          VJ     .5          
           M     .3333       


**** 01/08/22 22:32:13 ******* PSpice 17.4.0 (Nov 2018) ******* ID# 0 ********

 ** Profile: "SCHEMATIC1-halfwave"  [ c:\users\hp\documents\orcad\halfwaverectiier-pspicefiles\schematic1\halfwave.sim ] 


 ****     INITIAL TRANSIENT SOLUTION       TEMPERATURE =   27.000 DEG C


******************************************************************************



 NODE   VOLTAGE     NODE   VOLTAGE     NODE   VOLTAGE     NODE   VOLTAGE


(N00467)    0.0000 (N00474)-98.93E-18 




    VOLTAGE SOURCE CURRENTS
    NAME         CURRENT

    V_V1         9.893E-21

    TOTAL POWER DISSIPATION   0.00E+00  WATTS



          JOB CONCLUDED

**** 01/08/22 22:32:13 ******* PSpice 17.4.0 (Nov 2018) ******* ID# 0 ********

 ** Profile: "SCHEMATIC1-halfwave"  [ c:\users\hp\documents\orcad\halfwaverectiier-pspicefiles\schematic1\halfwave.sim ] 


 ****     JOB STATISTICS SUMMARY


******************************************************************************



  Total job time (using Solver 1)   =         .03
