
**** 01/10/22 01:59:40 ******* PSpice 17.4.0 (Nov 2018) ******* ID# 0 ********

 ** Profile: "SCHEMATIC1-c"  [ C:\Users\HP\Documents\orCad\fullwave-pspicefiles\schematic1\c.sim ] 


 ****     CIRCUIT DESCRIPTION


******************************************************************************




** Creating circuit file "c.cir" 
** WARNING: THIS AUTOMATICALLY GENERATED FILE MAY BE OVERWRITTEN BY SUBSEQUENT SIMULATIONS

*Libraries: 
* Profile Libraries :
* Local Libraries :
* From [PSPICE NETLIST] section of C:\SPB_DATA\cdssetup\OrCAD_PSpice\17.4.0\PSpice.ini file:
.lib "nom.lib" 

*Analysis directives: 
.TRAN  0 0.003 0 
.OPTIONS ADVCONV
.PROBE64 V(alias(*)) I(alias(*)) W(alias(*)) D(alias(*)) NOISE(alias(*)) 
.INC "..\SCHEMATIC1.net" 



**** INCLUDING SCHEMATIC1.net ****
* source FULLWAVE
R_R1         0 N00232 4.7k
D_D1         0 N00260 D1N4148 
D_D2         N00260 N00232 D1N4148 
D_D3         0 N00244 D1N4148 
D_D4         N00244 N00232 D1N4148 
V_V1         N00260 N00244  AC {0}
+SIN {0} {10} {1000} 0 0 0

**** RESUMING c.cir ****
.END

**** 01/10/22 01:59:40 ******* PSpice 17.4.0 (Nov 2018) ******* ID# 0 ********

 ** Profile: "SCHEMATIC1-c"  [ C:\Users\HP\Documents\orCad\fullwave-pspicefiles\schematic1\c.sim ] 


 ****     Diode MODEL PARAMETERS


******************************************************************************




               D1N4148         
          IS    2.682000E-09 
           N    1.836        
         ISR    1.565000E-09 
         IKF     .04417      
          BV  100            
         IBV  100.000000E-06 
          RS     .5664       
          TT   11.540000E-09 
         CJO    4.000000E-12 
          VJ     .5          
           M     .3333       


**** 01/10/22 01:59:40 ******* PSpice 17.4.0 (Nov 2018) ******* ID# 0 ********

 ** Profile: "SCHEMATIC1-c"  [ C:\Users\HP\Documents\orCad\fullwave-pspicefiles\schematic1\c.sim ] 


 ****     INITIAL TRANSIENT SOLUTION       TEMPERATURE =   27.000 DEG C


******************************************************************************



 NODE   VOLTAGE     NODE   VOLTAGE     NODE   VOLTAGE     NODE   VOLTAGE


(N00232)-2.454E-15 (N00244)-1.229E-15 (N00260)-1.229E-15 




    VOLTAGE SOURCE CURRENTS
    NAME         CURRENT

    V_V1         0.000E+00

    TOTAL POWER DISSIPATION   0.00E+00  WATTS



          JOB CONCLUDED

**** 01/10/22 01:59:40 ******* PSpice 17.4.0 (Nov 2018) ******* ID# 0 ********

 ** Profile: "SCHEMATIC1-c"  [ C:\Users\HP\Documents\orCad\fullwave-pspicefiles\schematic1\c.sim ] 


 ****     JOB STATISTICS SUMMARY


******************************************************************************



  Total job time (using Solver 1)   =         .03
